16
pbevtz=-437.685937137843 cc2vtz=-437.32589286082 mp2vtz=-437.18913641 hfvtz=-435.59193160552 b3lypvtz=-437.956264568662 bv5lypvtz=-437.956259552 qmc_b3lyp=-437.949792
C      -0.04230000      1.50740000     -0.03750000
C       0.04820000     -0.00910000      0.01340000
O       1.12920000     -0.57120000      0.03760000
C      -1.19760000     -0.76890000      0.03220000
C      -1.37530000     -2.14690000      0.07690000
C      -2.75910000     -2.38980000      0.07810000
O      -3.41810000     -3.58280000      0.11450000
C      -3.40960000     -1.16830000      0.03420000
N      -2.44910000     -0.19960000      0.00670000
H       0.96460000      1.91720000     -0.04570000
H      -0.56840000      1.84050000     -0.93640000
H      -0.57790000      1.89930000      0.83140000
H      -0.57310000     -2.86610000      0.10490000
H      -2.77640000     -4.29990000      0.14170000
H      -4.46130000     -0.94190000      0.02140000
H      -2.63540000      0.78640000     -0.02720000
