13
pbevtz=-411.5654060868 cc2vtz=-411.208607158605 mp2vtz=-411.07462496 hfvtz=-409.565735586522 b3lypvtz=-411.818430757135 bv5lypvtz=-411.818416879 qmc_b3lyp=-411.802976
N      -0.11360000      1.25650000     -0.47410000
C       0.01830000      0.06590000     -0.03540000
N      -1.13330000     -0.66350000      0.28090000
C      -1.10540000     -1.92720000      0.75090000
C       0.09240000     -2.55330000      0.93790000
N       1.28330000     -1.91010000      0.65210000
C       1.24280000     -0.70530000      0.20460000
C       0.14660000     -3.88890000      1.43360000
N       0.16440000     -4.96910000      1.83550000
H       0.78790000      1.68340000     -0.66810000
H      -2.01070000     -0.18370000      0.13600000
H      -2.05360000     -2.39970000      0.96360000
H       2.18550000     -0.21120000     -0.01600000
