21
pbevtz=-383.1017065992 cc2vtz=-382.786025473486 mp2vtz=-382.64236569 hfvtz=-381.077001889712 b3lypvtz=-383.358052208075 bv5lypvtz=-383.358096179 qmc_b3lyp=-383.386879
C       0.03380000      1.47430000     -0.24630000
C       0.00130000     -0.02680000      0.08480000
C       0.69910000     -0.30930000      1.42540000
C      -1.38830000     -0.59310000      0.03320000
C      -1.91840000     -1.56520000     -0.78880000
C      -3.28610000     -1.74800000     -0.43520000
N      -4.18990000     -2.60080000     -1.09650000
C      -3.55650000     -0.88010000      0.59650000
N      -2.39190000     -0.18030000      0.86420000
H       1.06230000      1.84120000     -0.27750000
H      -0.43160000      1.67320000     -1.21240000
H      -0.49940000      2.05980000      0.50760000
H       0.56170000     -0.54920000     -0.69570000
H       0.19400000      0.19810000      2.25180000
H       0.70740000     -1.37750000      1.64620000
H       1.73210000      0.04590000      1.40640000
H      -1.38500000     -2.08280000     -1.57080000
H      -3.76720000     -3.47450000     -1.37690000
H      -5.02300000     -2.78950000     -0.55760000
H      -4.46420000     -0.69470000      1.14480000
H      -2.30220000      0.51880000      1.57800000
