15
pbevtz=-416.613361579652 cc2vtz=-416.261706537782 mp2vtz=-416.1254908 hfvtz=-414.586313623812 b3lypvtz=-416.868125261908 bv5lypvtz=-416.868087656 qmc_b3lyp=-416.869291
O      -0.03010000      0.04660000      0.00490000
C      -0.01670000      1.24360000      0.01110000
C      -1.28170000      2.12780000      0.03250000
N      -0.72690000      3.46270000      0.03200000
C      -1.18730000      4.74310000      0.04450000
N      -0.19120000      5.59890000      0.03550000
C       0.96270000      4.85020000      0.01650000
C       0.65190000      3.51750000      0.01400000
C       1.23040000      2.14340000     -0.00070000
H      -1.89500000      1.92130000     -0.84750000
H      -1.87140000      1.91210000      0.92630000
H      -2.23610000      4.99230000      0.05970000
H       1.93420000      5.31580000      0.00600000
H       1.84940000      1.90520000      0.86860000
H       1.82630000      1.91420000     -0.88830000
