17
pbevtz=-380.716049218771 cc2vtz=-380.385201928846 mp2vtz=-380.24521856 hfvtz=-378.759830770194 b3lypvtz=-380.96191811723 bv5lypvtz=-380.961858672 qmc_b3lyp=-380.9766
C       0.00930000      1.42630000     -0.12060000
C       1.46190000      1.91120000      0.11670000
C       2.24860000      0.62880000      0.01480000
C       3.58640000      0.34450000     -0.10980000
C       3.97220000     -1.00470000     -0.14070000
C       2.99620000     -1.98280000     -0.04750000
N       1.68220000     -1.73000000      0.07480000
C       1.34990000     -0.45080000      0.10920000
N       0.05600000      0.01020000      0.26420000
H      -0.71810000      1.97270000      0.47930000
H      -0.26140000      1.54130000     -1.17780000
H       1.76290000      2.67510000     -0.60030000
H       1.56150000      2.34210000      1.11820000
H       4.32700000      1.13230000     -0.18810000
H       5.01180000     -1.28390000     -0.24420000
H       3.27160000     -3.03170000     -0.07660000
H      -0.69160000     -0.60450000     -0.01790000
