20
pbevtz=-439.991532315414 cc2vtz=-439.653616389432 mp2vtz=-439.50716748 hfvtz=-437.835391425739 b3lypvtz=-440.270972125783 bv5lypvtz=-440.270928942 qmc_b3lyp=-440.283338
C       1.09250000     -2.36790000      0.60850000
C       0.96720000     -1.39640000     -0.57170000
C       0.75150000      0.03000000     -0.13590000
N       1.68480000      0.84850000     -0.43330000
O       1.45160000      2.15040000      0.05650000
C      -0.43660000      0.41220000      0.68620000
C      -1.45990000      1.40700000      0.18480000
C      -1.84080000     -0.02810000      0.39150000
O      -2.05730000     -0.84820000     -0.72670000
H       1.24970000     -3.38520000      0.24560000
H       1.93700000     -2.10460000      1.24900000
H       0.18930000     -2.37320000      1.22130000
H       1.87330000     -1.42400000     -1.17830000
H       0.12910000     -1.70220000     -1.19990000
H       2.23040000      2.62330000     -0.25710000
H      -0.20120000      0.49730000      1.74270000
H      -1.82430000      2.16430000      0.86580000
H      -1.34550000      1.73020000     -0.84130000
H      -2.46240000     -0.27530000      1.24790000
H      -2.87480000     -0.56960000     -1.15410000
