13
pbevtz=-452.499510259907 cc2vtz=-452.126362787632 mp2vtz=-451.9891691 hfvtz=-450.402298666842 b3lypvtz=-452.766165829015 bv5lypvtz=-452.766128901 qmc_b3lyp=-452.747981
C      -0.02550000      1.49280000      0.12360000
O       1.26290000      2.00570000     -0.35130000
C       2.25580000      1.20170000     -0.77300000
N       2.27540000     -0.07410000     -0.83980000
C       1.09640000     -0.62220000     -0.40900000
C      -0.00410000      0.00770000      0.04620000
N      -0.96910000     -0.92060000      0.37690000
C      -0.40700000     -2.05430000      0.10530000
O       0.86130000     -1.96400000     -0.38010000
H      -0.15640000      1.86790000      1.14180000
H      -0.79490000      1.94460000     -0.50760000
H       3.11420000      1.78860000     -1.07790000
H      -0.81380000     -3.04480000      0.21650000
