13
pbevtz=-415.358731041531 cc2vtz=-414.997800371074 mp2vtz=-414.86531545 hfvtz=-413.36362665849 b3lypvtz=-415.616033356459 bv5lypvtz=-415.616010743 qmc_b3lyp=-415.599843
O      -0.06080000     -0.06330000      0.00330000
C      -0.00940000      1.15300000      0.00930000
N      -1.16210000      1.93750000      0.02930000
C      -1.15460000      3.31050000      0.03690000
C       0.05440000      3.94960000      0.02410000
N       1.23000000      3.26070000      0.00440000
C       1.20920000      1.96540000     -0.00260000
C      -2.40180000      3.98560000      0.05750000
C      -3.46350000      4.54830000      0.07500000
H      -2.04240000      1.43990000      0.03840000
H       0.10480000      5.02820000      0.02950000
H       2.14870000      1.42270000     -0.01820000
H      -4.39890000      5.05330000      0.09050000
