12
pbevtz=-435.198654677339 cc2vtz=-434.834361782629 mp2vtz=-434.70403921 hfvtz=-433.180258144195 b3lypvtz=-435.464683162513 bv5lypvtz=-435.46470654 qmc_b3lyp=-435.442469
O      -0.00010000     -0.03350000      0.00440000
C      -0.03350000      1.18280000      0.00780000
C       1.17960000      1.97620000      0.00090000
C       2.20320000      2.60390000     -0.00490000
C      -1.31100000      1.91800000      0.01900000
C      -2.55770000      1.37540000      0.02670000
O      -3.45440000      2.38980000      0.03570000
C      -2.69230000      3.52080000      0.03340000
N      -1.42810000      3.30370000      0.02330000
H       3.11030000      3.15860000     -0.00870000
H      -2.93500000      0.36940000      0.02680000
H      -3.21930000      4.46010000      0.03960000
