14
pbevtz=-432.640038703051 cc2vtz=-432.275917631174 mp2vtz=-432.13746108 hfvtz=-430.568414160991 b3lypvtz=-432.897225069085 bv5lypvtz=-432.897218613 qmc_b3lyp=-432.887902
C      -0.02450000      1.50050000     -0.05380000
N       1.34530000      2.03350000      0.04170000
C       2.34850000      1.28490000      0.26280000
N       2.35200000     -0.08840000      0.46140000
C       1.13510000     -0.70870000      0.22470000
C       0.02480000      0.01540000     -0.00800000
O      -1.00000000     -0.87950000     -0.19340000
C      -0.41020000     -2.09230000     -0.05700000
N       0.85950000     -2.05570000      0.19440000
H      -0.62130000      1.92480000      0.76370000
H      -0.47780000      1.87180000     -0.97970000
H       3.33390000      1.74040000      0.32510000
H       3.20930000     -0.61080000      0.39350000
H      -1.04050000     -2.95800000     -0.16780000
