18
pbevtz=-401.684255921226 cc2vtz=-401.35172026701 mp2vtz=-401.20810108 hfvtz=-399.65629270798 b3lypvtz=-401.937899634983 bv5lypvtz=-401.937872438 qmc_b3lyp=-401.953139
O      -0.13190000      1.34390000     -0.15370000
N      -0.00830000     -0.06420000     -0.11530000
C      -1.13600000     -0.63120000      0.06590000
C      -2.46820000     -0.04990000      0.24630000
C      -3.36990000     -1.01380000      0.47710000
C      -2.76660000     -2.38540000      0.48960000
C      -2.96080000     -3.23470000     -0.80570000
C      -1.53290000     -2.84080000     -1.26310000
C      -1.27640000     -2.13130000      0.10560000
H       0.78000000      1.62580000     -0.28290000
H      -2.66430000      1.00970000      0.19180000
H      -4.42860000     -0.84130000      0.63010000
H      -2.96860000     -2.91770000      1.42130000
H      -3.07070000     -4.29900000     -0.59770000
H      -3.77880000     -2.92340000     -1.45530000
H      -0.86520000     -3.67650000     -1.46710000
H      -1.49980000     -2.16030000     -2.11290000
H      -0.51610000     -2.60910000      0.71930000
