15
pbevtz=-416.560888529878 cc2vtz=-416.207818247619 mp2vtz=-416.06580489 hfvtz=-414.532002113612 b3lypvtz=-416.821310648127 bv5lypvtz=-416.821277437 qmc_b3lyp=-416.809833
N       0.06620000      0.99220000     -0.92590000
C       0.02970000      0.00610000     -0.14190000
O       1.22360000     -0.41820000      0.39970000
C       1.53280000     -1.42270000      1.25700000
C       0.74970000     -2.32870000      1.85170000
C      -0.67390000     -2.49010000      1.74180000
C      -1.54820000     -1.76890000      1.01690000
C      -1.32670000     -0.62900000      0.14040000
N      -2.35240000     -0.12870000     -0.43290000
H       1.01310000      1.34390000     -1.04880000
H       2.60030000     -1.41140000      1.42760000
H       1.27530000     -3.02200000      2.49590000
H      -1.08890000     -3.30430000      2.32480000
H      -2.59550000     -2.04000000      1.05830000
H      -2.06850000      0.65980000     -1.01770000
