19
pbevtz=-418.905394294895 cc2vtz=-418.572885570408 mp2vtz=-418.42727417 hfvtz=-416.803606739522 b3lypvtz=-419.163799320516 bv5lypvtz=-419.163813725 qmc_b3lyp=-419.183219
C      -0.08480000      1.54430000      0.01960000
C       0.07660000      0.02990000      0.03450000
C       1.02430000     -0.55240000     -1.07570000
C       2.02340000     -1.31080000     -0.16810000
N       1.14800000     -1.96300000      0.87300000
C       0.82090000     -0.54770000      1.27290000
C       2.26330000     -0.27300000      0.91410000
N       3.16870000      0.44160000      1.40870000
O       4.38770000      0.29460000      0.69790000
H       0.88270000      2.04550000      0.09230000
H      -0.56690000      1.87680000     -0.90230000
H      -0.70100000      1.88280000      0.85600000
H      -0.91150000     -0.43580000     -0.02150000
H       0.51450000     -1.23010000     -1.76260000
H       1.50400000      0.23100000     -1.66510000
H       2.81940000     -1.89690000     -0.61590000
H       0.34750000     -2.44270000      0.46030000
H       0.40990000     -0.37140000      2.26340000
H       4.98620000      0.85940000      1.19950000
