14
pbevtz=-436.477518782872 cc2vtz=-436.112252435758 mp2vtz=-435.97617732 hfvtz=-434.41969473386 b3lypvtz=-436.739952330826 bv5lypvtz=-436.739934368 qmc_b3lyp=-436.731767
O      -0.07900000     -0.06950000      0.00510000
C       0.01610000      1.13810000      0.01020000
N      -1.05170000      2.02970000      0.03010000
C      -0.69190000      3.44550000      0.03050000
C       0.78820000      3.29630000      0.00930000
C       1.20960000      2.01510000     -0.00210000
C       2.63980000      2.06570000     -0.02180000
C       2.94590000      3.38820000     -0.02030000
O       1.80380000      4.17150000     -0.00100000
H      -2.00030000      1.69730000      0.03880000
H      -1.08000000      3.97020000     -0.84910000
H      -1.05550000      3.96340000      0.92440000
H       3.34190000      1.24960000     -0.03500000
H       3.87310000      3.93250000     -0.03080000
