16
pbevtz=-474.636909995279 cc2vtz=-474.265502334953 mp2vtz=-474.12333248 hfvtz=-472.427118872089 b3lypvtz=-474.912743082164 bv5lypvtz=-474.912709959 qmc_b3lyp=-474.905267
C       0.02340000      1.42350000     -0.04920000
C      -0.05080000     -0.05360000      0.09160000
O       0.59310000     -0.93260000     -0.97320000
C       0.01310000     -1.91340000      0.00400000
C       0.60680000     -1.02470000      1.13770000
O       1.98640000     -0.98210000      1.27890000
C      -1.20650000     -1.02280000      0.02850000
N      -2.45720000     -0.96420000     -0.04960000
O      -3.03490000     -2.25020000     -0.14020000
H       1.05720000      1.76210000      0.03290000
H      -0.38030000      1.73800000     -1.01200000
H      -0.56020000      1.89630000      0.74240000
H       0.12730000     -2.97060000     -0.20700000
H       0.15020000     -1.08540000      2.12460000
H       2.35670000     -0.94810000      0.38390000
H      -3.97570000     -2.05060000     -0.20840000
