20
pbevtz=-440.023354265968 cc2vtz=-439.689185448993 mp2vtz=-439.54159879 hfvtz=-437.873056858523 b3lypvtz=-440.304680884198 bv5lypvtz=-440.304592707 qmc_b3lyp=-440.319088
C      -0.04770000      1.52150000     -0.03980000
C       0.09370000      0.01640000      0.05440000
O       0.76050000     -0.42760000     -1.13110000
C       0.87760000     -1.83990000     -1.21890000
C       1.72820000     -2.39270000     -0.08490000
C       1.15850000     -1.96770000      1.27680000
C       0.82830000     -0.49840000      1.28040000
N       1.08460000      0.33400000      2.20560000
O       1.73900000     -0.25080000      3.30950000
H       0.93220000      1.99740000     -0.05890000
H      -0.57930000      1.77220000     -0.95800000
H      -0.60120000      1.91210000      0.81240000
H      -0.91010000     -0.44280000      0.06920000
H      -0.12370000     -2.29780000     -1.20510000
H       1.32830000     -2.04500000     -2.19050000
H       1.77750000     -3.48290000     -0.14930000
H       2.74720000     -2.01180000     -0.19080000
H       0.22930000     -2.51910000      1.46750000
H       1.84200000     -2.20460000      2.08820000
H       1.87240000      0.50680000      3.88960000
