19
pbevtz=-381.849945427182 cc2vtz=-381.524809363309 mp2vtz=-381.3844546 hfvtz=-379.851015079339 b3lypvtz=-382.097148147256 bv5lypvtz=-382.097156545 qmc_b3lyp=-382.120319
C      -0.24570000      1.70370000     -0.63430000
N      -0.84550000      0.39440000     -0.31280000
C      -0.01080000     -0.79380000     -0.24300000
C      -0.60770000     -0.20850000      0.98700000
C       1.14540000      2.00490000     -0.15370000
C       1.48580000      2.65610000      1.01270000
N       2.85130000      2.73590000      1.07790000
C       3.40260000      2.14890000     -0.03020000
C       2.37200000      1.68710000     -0.81040000
H      -0.27690000      1.78800000     -1.72330000
H      -0.93720000      2.45310000     -0.24170000
H      -0.43330000     -1.68670000     -0.68990000
H       1.06240000     -0.68290000     -0.35830000
H       0.07890000      0.28480000      1.66820000
H      -1.47180000     -0.66720000      1.45430000
H       0.86340000      3.07790000      1.78440000
H       3.37000000      3.17280000      1.81840000
H       4.46900000      2.11310000     -0.17360000
H       2.47760000      1.18630000     -1.75950000
