16
pbevtz=-437.68995762506 cc2vtz=-437.331883442918 mp2vtz=-437.19381366 hfvtz=-435.604013448102 b3lypvtz=-437.962736848786 bv5lypvtz=-437.9627255 qmc_b3lyp=-437.9567
C       0.03140000      1.42800000     -2.31910000
C       0.07770000     -0.06020000     -2.54440000
O       0.27160000     -0.59880000     -3.60020000
O      -0.13320000     -0.70750000     -1.37110000
C      -0.14760000     -2.08630000     -1.26420000
C      -0.36770000     -2.67540000     -0.04130000
N      -0.32590000     -4.03000000     -0.24430000
C      -0.08540000     -4.29890000     -1.56230000
C       0.03270000     -3.10560000     -2.23650000
H      -0.93790000      1.71480000     -1.90870000
H       0.79250000      1.72110000     -1.59450000
H       0.20080000      1.93980000     -3.26220000
H      -0.54480000     -2.23670000      0.92430000
H      -0.45390000     -4.71980000      0.47320000
H      -0.01580000     -5.30980000     -1.92520000
H       0.22260000     -2.97510000     -3.28390000
