16
pbevtz=-433.858389357819 cc2vtz=-433.498109081997 mp2vtz=-433.35637797 hfvtz=-431.758561817719 b3lypvtz=-434.12444435624 bv5lypvtz=-434.124470834 qmc_b3lyp=-434.116331
C      -0.93120000      1.23170000      0.17740000
C       0.02270000      0.07920000     -0.01790000
N       0.48600000     -0.48560000      1.12840000
N       0.44750000     -0.40870000     -1.13040000
C       0.19350000      0.11620000     -2.35450000
N       0.17870000     -0.53140000     -3.48250000
C      -0.05560000      0.42910000     -4.44800000
C      -0.16090000      1.64200000     -3.86750000
O      -0.00520000      1.47070000     -2.51510000
H      -0.39360000      2.17830000      0.10850000
H      -1.69510000      1.23400000     -0.59650000
H      -1.41300000      1.17930000      1.15420000
H       0.04690000     -0.29710000      2.01020000
H       1.06810000     -1.30290000      1.04500000
H      -0.12330000      0.17760000     -5.49330000
H      -0.31810000      2.64580000     -4.21800000
