14
pbevtz=-432.649596474584 cc2vtz=-432.28494013827 mp2vtz=-432.14518584 hfvtz=-430.588967509422 b3lypvtz=-432.913648045062 bv5lypvtz=-432.913672331 qmc_b3lyp=-432.896274
N      -0.02770000      1.00430000      1.02530000
C       0.03590000      0.11000000      0.11280000
C      -1.26000000     -0.45880000     -0.29760000
C      -1.56030000     -1.39410000     -1.20450000
C      -0.67830000     -2.16200000     -2.09160000
O      -1.11600000     -2.98480000     -2.86970000
N       0.70530000     -1.95610000     -2.06010000
C       1.51240000     -1.12340000     -1.32140000
N       1.27840000     -0.25930000     -0.41840000
H       0.91570000      1.33240000      1.23720000
H      -2.07940000     -0.01490000      0.25480000
H      -2.59770000     -1.66670000     -1.34870000
H       1.18130000     -2.55280000     -2.72400000
H       2.55730000     -1.26350000     -1.59620000
