18
pbevtz=-401.786816195217 cc2vtz=-401.449412376217 mp2vtz=-401.30830242 hfvtz=-399.76549915265 b3lypvtz=-402.047513634983 bv5lypvtz=-402.047489281 qmc_b3lyp=-402.057147
C       0.06480000      1.51910000     -0.04050000
C      -0.01640000      0.02010000     -0.01470000
C      -1.18930000     -0.67260000      0.01610000
C      -2.51840000      0.02670000      0.03490000
C      -1.18740000     -2.14460000      0.03160000
O      -2.22470000     -2.80960000      0.06370000
C       0.13240000     -2.75960000      0.00540000
C       1.25460000     -2.01120000     -0.02620000
N       1.18510000     -0.64870000     -0.03620000
H       1.09090000      1.87000000      0.08260000
H      -0.31380000      1.91630000     -0.98530000
H      -0.53710000      1.95670000      0.75690000
H      -2.63940000      0.70330000     -0.81540000
H      -3.30670000     -0.72240000     -0.00270000
H      -2.65520000      0.61970000      0.94430000
H       0.19100000     -3.83860000      0.01360000
H       2.25100000     -2.43150000     -0.04410000
H       2.03560000     -0.11290000     -0.05490000
