18
pbevtz=-438.814286010383 cc2vtz=-438.471461908257 mp2vtz=-438.32641306 hfvtz=-436.692670963931 b3lypvtz=-439.089426507429 bv5lypvtz=-439.089407777 qmc_b3lyp=-439.094239
C      -0.23070000      1.53720000      0.03110000
C       0.05860000      0.04150000      0.00170000
C       0.86210000     -0.47070000     -1.23590000
O       1.57150000      0.53380000     -1.96300000
C       1.81000000     -1.48780000     -0.65210000
C       1.82800000     -1.46380000      0.68510000
C       0.85300000     -0.49490000      1.18330000
N       0.61990000     -0.11660000      2.37700000
O       1.44260000     -0.77880000      3.31110000
H       0.68810000      2.12400000      0.05710000
H      -0.79400000      1.83850000     -0.85280000
H      -0.81040000      1.78740000      0.91910000
H      -0.89710000     -0.49350000      0.00020000
H       0.19200000     -0.90560000     -1.97880000
H       2.29270000      0.86140000     -1.41210000
H       2.43990000     -2.10380000     -1.28070000
H       2.45980000     -2.05380000      1.33090000
H       1.15560000     -0.39610000      4.14740000
