15
pbevtz=-416.567956638095 cc2vtz=-416.216475907812 mp2vtz=-416.07968713 hfvtz=-414.541814281931 b3lypvtz=-416.826465609746 bv5lypvtz=-416.826427671 qmc_b3lyp=-416.818611
C       0.90930000      0.85350000     -0.25640000
O      -0.24260000      0.27300000     -0.86320000
C      -0.34880000      0.70920000      0.49350000
C      -0.53090000     -0.33710000      1.53430000
N      -0.91620000      0.08630000      2.73880000
C      -1.06330000     -0.83960000      3.68270000
C      -0.83480000     -2.18690000      3.42980000
N      -0.46660000     -2.61850000      2.22460000
C      -0.31810000     -1.69530000      1.27970000
H       1.72620000      0.16630000     -0.05720000
H       1.19350000      1.83080000     -0.63450000
H      -0.95450000      1.59680000      0.65040000
H      -1.37650000     -0.50000000      4.66410000
H      -0.95790000     -2.93120000      4.20880000
H      -0.03730000     -2.03150000      0.28890000
