15
pbevtz=-416.607957732455 cc2vtz=-416.253204526105 mp2vtz=-416.1144344 hfvtz=-414.583150623949 b3lypvtz=-416.863268790797 bv5lypvtz=-416.863265622 qmc_b3lyp=-416.862141
O       0.06540000     -0.11440000      0.00110000
C      -0.01600000      1.09910000      0.00900000
C      -1.20880000      1.93380000      0.03010000
C      -1.14010000      3.29590000      0.03650000
N       0.02260000      4.03930000      0.02430000
C       1.07120000      3.29370000      0.00550000
C       2.57900000      3.41660000     -0.01500000
C       2.57590000      1.84730000     -0.02340000
N       1.10570000      1.93830000     -0.00220000
H      -2.16380000      1.42770000      0.04060000
H      -2.05340000      3.87960000      0.05240000
H       2.98790000      3.88520000     -0.90840000
H       3.01280000      3.87550000      0.87170000
H       2.96270000      1.37520000     -0.92460000
H       2.98790000      1.36550000      0.86130000
