21
pbevtz=-420.118809135115 cc2vtz=-419.790966321455 mp2vtz=-419.64228048 hfvtz=-417.992008951897 b3lypvtz=-420.389767521744 bv5lypvtz=-420.389783722 qmc_b3lyp=-420.406639
C      -1.45020000     -0.47080000     -0.22770000
C       0.00360000     -0.04730000     -0.03180000
C       0.15450000      1.46850000     -0.13450000
N       0.48000000     -0.50440000      1.26730000
C       1.92320000     -0.32330000      1.58980000
C       1.92160000     -1.73560000      2.11150000
C       0.55890000     -1.97030000      1.51300000
N       2.75550000     -2.36790000      2.81090000
O       2.30360000     -3.68070000      3.07310000
H      -2.08260000     -0.02000000      0.54000000
H      -1.81130000     -0.15070000     -1.20670000
H      -1.56670000     -1.55440000     -0.17050000
H       0.60850000     -0.50930000     -0.83730000
H      -0.44060000      1.96120000      0.63720000
H       1.19330000      1.78070000     -0.01360000
H      -0.18410000      1.81940000     -1.11090000
H       2.56350000     -0.20960000      0.70290000
H       2.14440000      0.47690000      2.29760000
H      -0.21040000     -2.37770000      2.17070000
H       0.60840000     -2.58020000      0.59900000
H       3.01040000     -4.03940000      3.62150000
