20
pbevtz=-402.898657569874 cc2vtz=-402.575088140779 mp2vtz=-402.42963876 hfvtz=-400.839799524153 b3lypvtz=-403.156731637397 bv5lypvtz=-403.156690874 qmc_b3lyp=-403.182686
C       0.11210000      1.62190000      0.00110000
C       0.10750000      0.09610000      0.03810000
C       0.72650000     -0.59700000     -1.16900000
C       2.22580000     -0.57280000     -1.30140000
C       1.54930000     -1.77490000     -0.70020000
C       1.49970000     -1.83140000      0.81600000
C       0.84950000     -0.52560000      1.21310000
N       0.88240000      0.05140000      2.34110000
O       1.59550000     -0.70500000      3.29810000
H       1.12910000      2.00620000     -0.09360000
H      -0.46910000      1.98410000     -0.84930000
H      -0.31830000      2.03340000      0.91380000
H      -0.93520000     -0.24210000      0.10840000
H       0.13570000     -0.65940000     -2.07370000
H       2.63810000     -0.67400000     -2.29640000
H       2.80010000      0.07460000     -0.64810000
H       1.55740000     -2.70410000     -1.25400000
H       0.88290000     -2.66840000      1.16100000
H       2.47540000     -1.94500000      1.29160000
H       1.56460000     -0.13550000      4.07480000
