18
pbevtz=-401.683931641137 cc2vtz=-401.349072325499 mp2vtz=-401.20592098 hfvtz=-399.655413953072 b3lypvtz=-401.938006830211 bv5lypvtz=-401.937968343 qmc_b3lyp=-401.950076
O      -0.07390000      1.31310000      0.00580000
N       0.03520000     -0.09630000      0.00120000
C      -1.10890000     -0.66050000      0.00810000
C      -2.44750000     -0.07380000      0.01950000
C      -3.37150000     -1.04090000      0.02380000
C      -2.77180000     -2.41920000      0.01570000
C      -1.26430000     -2.15080000      0.00520000
C      -0.29270000     -3.02150000     -0.75300000
C      -0.28160000     -3.02560000      0.74390000
H       0.84820000      1.59010000     -0.00030000
H      -2.62870000      0.98940000      0.02370000
H      -4.44090000     -0.87420000      0.03210000
H      -3.08670000     -2.99290000      0.89390000
H      -3.09970000     -2.98820000     -0.86080000
H      -0.69530000     -3.88570000     -1.26640000
H       0.51450000     -2.51350000     -1.26360000
H       0.53320000     -2.52040000      1.24530000
H      -0.67650000     -3.89260000      1.25860000
