16
pbevtz=-400.533179888457 cc2vtz=-400.189758835407 mp2vtz=-400.05020594 hfvtz=-398.545245996264 b3lypvtz=-400.791435771155 bv5lypvtz=-400.791413937 qmc_b3lyp=-400.784565
C      -0.01130000      1.52250000      0.09830000
C      -0.03000000      0.01790000     -0.00840000
C      -1.22240000     -0.62090000     -0.15120000
C      -1.49160000     -2.04290000     -0.31380000
O      -2.56430000     -2.44410000     -0.74820000
C      -0.51360000     -3.05620000      0.17210000
N       0.76360000     -3.01850000      0.28100000
C       1.56910000     -1.93510000      0.06090000
C       1.25930000     -0.61500000     -0.00910000
H       0.56620000      1.95860000     -0.72110000
H      -1.01490000      1.94220000      0.07150000
H       0.47010000      1.83480000      1.02860000
H      -2.12540000     -0.02090000     -0.19220000
H      -0.99940000     -3.99770000      0.42940000
H       2.62120000     -2.19730000      0.01720000
H       2.10960000      0.05790000     -0.05630000
