17
pbevtz=-454.789766455689 cc2vtz=-454.429391084041 mp2vtz=-454.28593298 hfvtz=-452.620916858222 b3lypvtz=-455.062790306688 bv5lypvtz=-455.062767592 qmc_b3lyp=-455.059936
O      -0.20310000      1.30290000     -0.21390000
N      -0.00550000     -0.07210000      0.02770000
C      -1.09380000     -0.70180000     -0.01610000
C      -2.55300000     -0.40890000     -0.25170000
N      -2.81930000     -1.87650000     -0.16020000
C      -1.39820000     -2.17600000      0.18320000
C      -0.69830000     -3.15510000     -0.72890000
C      -1.43460000     -4.13910000     -1.52380000
O      -0.86880000     -2.97350000     -2.13070000
H       0.69430000      1.65340000     -0.18210000
H      -3.00890000      0.20440000      0.53150000
H      -2.79780000      0.02010000     -1.22540000
H      -3.46910000     -2.12480000      0.57410000
H      -1.24310000     -2.49790000      1.22050000
H       0.32340000     -3.38260000     -0.43100000
H      -0.95860000     -5.07820000     -1.78990000
H      -2.51840000     -4.14080000     -1.47770000
