15
pbevtz=-449.911907581752 cc2vtz=-449.542176026917 mp2vtz=-449.40008512 hfvtz=-447.7814894801 b3lypvtz=-450.182900248954 bv5lypvtz=-450.182878683 qmc_b3lyp=-450.172114
N       0.14190000      1.33770000      0.14740000
C      -0.04030000     -0.01960000      0.03290000
C      -1.18910000     -0.71030000      0.01070000
C      -1.16320000     -2.16310000     -0.00980000
N      -2.24550000     -2.84320000     -0.01730000
N       0.11190000     -2.76470000     -0.02250000
C       1.14840000     -2.02880000     -0.03280000
N       2.41530000     -2.51710000     -0.11930000
O       1.17730000     -0.65630000      0.00210000
H       0.97250000      1.69800000     -0.29810000
H      -0.68190000      1.89200000     -0.02280000
H      -2.14230000     -0.20370000      0.01870000
H      -2.01830000     -3.83680000     -0.03630000
H       2.50850000     -3.50650000      0.03480000
H       3.17080000     -1.92690000      0.18440000
