18
pbevtz=-438.871778623219 cc2vtz=-438.533921288772 mp2vtz=-438.39213285 hfvtz=-436.757932102927 b3lypvtz=-439.149831841163 bv5lypvtz=-439.149787777 qmc_b3lyp=-439.157856
C      -0.35630000      1.45480000     -0.12410000
C       0.03450000     -0.01840000      0.04150000
C       0.97240000     -0.20700000      1.23940000
O      -1.14200000     -0.82550000      0.20420000
C       0.68370000     -0.52910000     -1.21360000
C       0.29060000     -1.52210000     -2.04070000
O       1.21160000     -1.61700000     -3.05390000
C       2.11900000     -0.65870000     -2.77050000
N       1.86650000      0.01540000     -1.70240000
H       0.52080000      2.06500000     -0.34060000
H      -1.06910000      1.56350000     -0.94190000
H      -0.81700000      1.82820000      0.79450000
H       0.50340000      0.17680000      2.14950000
H       1.19280000     -1.26550000      1.37940000
H       1.90930000      0.32830000      1.08430000
H      -1.59700000     -0.53460000      1.00190000
H      -0.53880000     -2.20230000     -2.06140000
H       2.94890000     -0.55190000     -3.44910000
