17
pbevtz=-380.642909300404 cc2vtz=-380.315624387074 mp2vtz=-380.17805641 hfvtz=-378.671832890207 b3lypvtz=-380.877774918206 bv5lypvtz=-380.877756537 qmc_b3lyp=-380.903518
C      -0.03890000      1.57530000     -0.05670000
C       1.50520000      1.36300000      0.01380000
C       1.19100000      0.16860000      0.96730000
C      -0.03470000      0.00030000     -0.00850000
C       0.71200000     -0.28170000     -1.29280000
N       0.74150000     -1.03300000     -2.36080000
C       1.84950000     -0.57100000     -3.05530000
C       2.47180000      0.46040000     -2.38850000
N       1.71930000      0.62860000     -1.25250000
H      -0.44530000      2.02520000      0.84860000
H      -0.43610000      2.05620000     -0.94950000
H       2.22540000      2.14650000      0.22490000
H       1.92040000     -0.63890000      1.01250000
H       0.89600000      0.49110000      1.96540000
H      -0.91140000     -0.58780000      0.23660000
H       2.13690000     -1.00670000     -3.99790000
H       3.34060000      1.04930000     -2.62370000
